# generated using pymatgen
data_ZrP2(H3O5)2
_symmetry_space_group_name_H-M   P2_1
_cell_length_a   5.46575794
_cell_length_b   6.69722274
_cell_length_c   12.54046252
_cell_angle_alpha   90.00000000
_cell_angle_beta   99.41248180
_cell_angle_gamma   90.00000000
_symmetry_Int_Tables_number   4
_chemical_formula_structural   ZrP2(H3O5)2
_chemical_formula_sum   'Zr2 P4 O20'
_cell_volume   452.86825185
_cell_formula_units_Z   2
loop_
 _symmetry_equiv_pos_site_id
 _symmetry_equiv_pos_as_xyz
  1  'x, y, z'
  2  '-x, y+1/2, -z'
loop_
 _atom_site_type_symbol
 _atom_site_label
 _atom_site_symmetry_multiplicity
 _atom_site_fract_x
 _atom_site_fract_y
 _atom_site_fract_z
 _atom_site_occupancy
  Zr  Zr0  2  0.197609  0.752793  0.873256  1
  P  P1  2  0.241402  0.253050  0.941437  1
  P  P2  2  0.354171  0.175051  0.304850  1
  O  O10  2  0.085929  0.244152  0.270756  1
  O  O12  2  0.192655  0.068320  0.866515  1
  O  O13  2  0.194868  0.440146  0.870132  1
  O  O15  2  0.341260  0.939432  0.308931  1
  O  O16  2  0.431353  0.265070  0.421800  1
  O  O17  2  0.459996  0.742875  0.765883  1
  O  O18  2  0.487434  0.751024  0.999751  1
